11488320
  -OEChem-09222611533D

 58 61  0     0  0  0  0  0  0999 V2000
   -5.0647   -4.8807   -1.5514 Cl  0  0  0  0  0  0  0  0  0  0  0  0
   -3.6748   -2.3285   -2.0884 F   0  0  0  0  0  0  0  0  0  0  0  0
    1.4969    1.7394   -1.1424 O   0  0  0  0  0  0  0  0  0  0  0  0
    7.0862   -0.9655   -0.3078 O   0  0  0  0  0  0  0  0  0  0  0  0
    1.3149    4.3329   -0.1618 O   0  0  0  0  0  0  0  0  0  0  0  0
    4.3621   -1.2524   -0.5424 N   0  0  0  0  0  0  0  0  0  0  0  0
    7.1054   -2.6079    1.3342 N   0  0  0  0  0  0  0  0  0  0  0  0
   -3.1964    3.5550    1.1511 N   0  0  0  0  0  0  0  0  0  0  0  0
   -3.0576   -0.3291   -0.2719 N   0  0  0  0  0  0  0  0  0  0  0  0
   -4.2434    1.4193    0.7640 N   0  0  0  0  0  0  0  0  0  0  0  0
    2.1153    0.6162   -0.5278 C   0  0  0  0  0  0  0  0  0  0  0  0
    3.5084    1.0151   -0.0513 C   0  0  0  0  0  0  0  0  0  0  0  0
    2.2077   -0.5379   -1.5221 C   0  0  0  0  0  0  0  0  0  0  0  0
    4.2837   -0.1928    0.4735 C   0  0  0  0  0  0  0  0  0  0  0  0
    3.0225   -1.6982   -0.9519 C   0  0  0  0  0  0  0  0  0  0  0  0
    5.1470   -2.3818   -0.0443 C   0  0  0  0  0  0  0  0  0  0  0  0
    0.3347    2.1920   -0.5746 C   0  0  0  0  0  0  0  0  0  0  0  0
    6.5442   -1.8967    0.2835 C   0  0  0  0  0  0  0  0  0  0  0  0
   -0.7578    1.3417   -0.4908 C   0  0  0  0  0  0  0  0  0  0  0  0
    0.2499    3.4863   -0.0867 C   0  0  0  0  0  0  0  0  0  0  0  0
   -1.9527    1.7989    0.0917 C   0  0  0  0  0  0  0  0  0  0  0  0
   -0.9419    3.9337    0.4912 C   0  0  0  0  0  0  0  0  0  0  0  0
   -2.0585    3.1071    0.5918 C   0  0  0  0  0  0  0  0  0  0  0  0
   -3.0888    1.0032    0.2102 C   0  0  0  0  0  0  0  0  0  0  0  0
    8.4203   -2.3303    1.8666 C   0  0  0  0  0  0  0  0  0  0  0  0
   -4.2269    2.6871    1.2064 C   0  0  0  0  0  0  0  0  0  0  0  0
    1.4213    5.1379   -1.3343 C   0  0  0  0  0  0  0  0  0  0  0  0
   -3.7257   -1.4971    0.1284 C   0  0  0  0  0  0  0  0  0  0  0  0
   -4.0287   -2.4935   -0.8045 C   0  0  0  0  0  0  0  0  0  0  0  0
   -4.0936   -1.6707    1.4660 C   0  0  0  0  0  0  0  0  0  0  0  0
   -4.6931   -3.6525   -0.4035 C   0  0  0  0  0  0  0  0  0  0  0  0
   -4.7582   -2.8297    1.8671 C   0  0  0  0  0  0  0  0  0  0  0  0
   -5.0579   -3.8206    0.9322 C   0  0  0  0  0  0  0  0  0  0  0  0
    1.5484    0.2769    0.3513 H   0  0  0  0  0  0  0  0  0  0  0  0
    3.4261    1.7786    0.7320 H   0  0  0  0  0  0  0  0  0  0  0  0
    4.0616    1.4904   -0.8725 H   0  0  0  0  0  0  0  0  0  0  0  0
    2.6608   -0.1844   -2.4581 H   0  0  0  0  0  0  0  0  0  0  0  0
    1.2038   -0.8846   -1.7930 H   0  0  0  0  0  0  0  0  0  0  0  0
    5.2667    0.1812    0.7749 H   0  0  0  0  0  0  0  0  0  0  0  0
    3.7967   -0.5682    1.3838 H   0  0  0  0  0  0  0  0  0  0  0  0
    2.4835   -2.1466   -0.1069 H   0  0  0  0  0  0  0  0  0  0  0  0
    3.1095   -2.4682   -1.7281 H   0  0  0  0  0  0  0  0  0  0  0  0
    5.2506   -3.1520   -0.8176 H   0  0  0  0  0  0  0  0  0  0  0  0
    4.6766   -2.8378    0.8355 H   0  0  0  0  0  0  0  0  0  0  0  0
   -0.6715    0.3330   -0.8831 H   0  0  0  0  0  0  0  0  0  0  0  0
    6.5920   -3.3837    1.7419 H   0  0  0  0  0  0  0  0  0  0  0  0
   -0.9955    4.9526    0.8718 H   0  0  0  0  0  0  0  0  0  0  0  0
    8.3672   -2.3822    2.9566 H   0  0  0  0  0  0  0  0  0  0  0  0
    9.1063   -3.0971    1.4985 H   0  0  0  0  0  0  0  0  0  0  0  0
    8.7698   -1.3427    1.5565 H   0  0  0  0  0  0  0  0  0  0  0  0
   -2.6388   -0.4065   -1.1948 H   0  0  0  0  0  0  0  0  0  0  0  0
   -5.1406    3.0537    1.6581 H   0  0  0  0  0  0  0  0  0  0  0  0
    1.5117    4.5096   -2.2261 H   0  0  0  0  0  0  0  0  0  0  0  0
    0.5533    5.7984   -1.4261 H   0  0  0  0  0  0  0  0  0  0  0  0
    2.3212    5.7527   -1.2472 H   0  0  0  0  0  0  0  0  0  0  0  0
   -3.8598   -0.9205    2.2170 H   0  0  0  0  0  0  0  0  0  0  0  0
   -5.0394   -2.9621    2.9077 H   0  0  0  0  0  0  0  0  0  0  0  0
   -5.5751   -4.7188    1.2597 H   0  0  0  0  0  0  0  0  0  0  0  0
  1 31  1  0  0  0  0
  2 29  1  0  0  0  0
  3 11  1  0  0  0  0
  3 17  1  0  0  0  0
  4 18  2  0  0  0  0
  5 20  1  0  0  0  0
  5 27  1  0  0  0  0
  6 14  1  0  0  0  0
  6 15  1  0  0  0  0
  6 16  1  0  0  0  0
  7 18  1  0  0  0  0
  7 25  1  0  0  0  0
  7 46  1  0  0  0  0
  8 23  1  0  0  0  0
  8 26  2  0  0  0  0
  9 24  1  0  0  0  0
  9 28  1  0  0  0  0
  9 51  1  0  0  0  0
 10 24  2  0  0  0  0
 10 26  1  0  0  0  0
 11 12  1  0  0  0  0
 11 13  1  0  0  0  0
 11 34  1  0  0  0  0
 12 14  1  0  0  0  0
 12 35  1  0  0  0  0
 12 36  1  0  0  0  0
 13 15  1  0  0  0  0
 13 37  1  0  0  0  0
 13 38  1  0  0  0  0
 14 39  1  0  0  0  0
 14 40  1  0  0  0  0
 15 41  1  0  0  0  0
 15 42  1  0  0  0  0
 16 18  1  0  0  0  0
 16 43  1  0  0  0  0
 16 44  1  0  0  0  0
 17 19  1  0  0  0  0
 17 20  2  0  0  0  0
 19 21  2  0  0  0  0
 19 45  1  0  0  0  0
 20 22  1  0  0  0  0
 21 23  1  0  0  0  0
 21 24  1  0  0  0  0
 22 23  2  0  0  0  0
 22 47  1  0  0  0  0
 25 48  1  0  0  0  0
 25 49  1  0  0  0  0
 25 50  1  0  0  0  0
 26 52  1  0  0  0  0
 27 53  1  0  0  0  0
 27 54  1  0  0  0  0
 27 55  1  0  0  0  0
 28 29  2  0  0  0  0
 28 30  1  0  0  0  0
 29 31  1  0  0  0  0
 30 32  2  0  0  0  0
 30 56  1  0  0  0  0
 31 33  2  0  0  0  0
 32 33  1  0  0  0  0
 32 57  1  0  0  0  0
 33 58  1  0  0  0  0
M  END
> <PUBCHEM_COMPOUND_CID>
11488320

> <PUBCHEM_CONFORMER_RMSD>
1.2

> <PUBCHEM_CONFORMER_DIVERSEORDER>
1
131
382
252
352
494
412
314
297
184
315
183
288
419
157
37
159
145
370
66
148
243
461
70
344
230
433
428
215
378
170
458
231
51
65
365
98
363
237
477
462
500
59
449
88
281
255
73
134
238
302
434
471
130
358
58
112
321
290
317
213
78
490
431
348
246
5
24
203
155
76
12
36
223
9
417
276
154
456
499
331
107
74
135
13
429
4
21
379
54
164
91
6
305
204
116
474
11
111
258
41
191
176
233
113
492
149
198
30
199
7
313
80
138
304
25
8
89
3
28
2
19
475
18

> <PUBCHEM_MMFF94_PARTIAL_CHARGES>
38
1 -0.18
10 -0.62
11 0.28
14 0.27
15 0.27
16 0.33
17 0.08
18 0.57
19 -0.15
2 -0.19
20 0.08
22 -0.15
23 0.31
24 0.41
25 0.3
26 0.47
27 0.28
28 0.1
29 0.19
3 -0.36
30 -0.15
31 0.18
32 -0.15
33 -0.15
4 -0.57
45 0.15
46 0.37
47 0.15
5 -0.36
51 0.4
52 0.15
56 0.15
57 0.15
58 0.15
6 -0.81
7 -0.73
8 -0.62
9 -0.6

> <PUBCHEM_EFFECTIVE_ROTOR_COUNT>
9.2

> <PUBCHEM_PHARMACOPHORE_FEATURES>
12
1 3 acceptor
1 4 acceptor
1 5 acceptor
1 6 cation
1 7 donor
1 9 donor
3 8 10 26 cation
3 9 10 24 cation
6 17 19 20 21 22 23 rings
6 28 29 30 31 32 33 rings
6 6 11 12 13 14 15 rings
6 8 10 21 23 24 26 rings

> <PUBCHEM_HEAVY_ATOM_COUNT>
33

> <PUBCHEM_ATOM_DEF_STEREO_COUNT>
0

> <PUBCHEM_ATOM_UDEF_STEREO_COUNT>
0

> <PUBCHEM_BOND_DEF_STEREO_COUNT>
0

> <PUBCHEM_BOND_UDEF_STEREO_COUNT>
0

> <PUBCHEM_ISOTOPIC_ATOM_COUNT>
0

> <PUBCHEM_COMPONENT_COUNT>
1

> <PUBCHEM_CACTVS_TAUTO_COUNT>
6

> <PUBCHEM_CONFORMER_ID>
00AF4C4000000001

> <PUBCHEM_MMFF94_ENERGY>
110.5707

> <PUBCHEM_FEATURE_SELFOVERLAP>
61.073

> <PUBCHEM_SHAPE_FINGERPRINT>
10049733 167 18265873883361958834
10254770 206 18411136914379694267
10319688 45 18264488395441639956
10622 236 18336265742377577167
11088757 655 18335414682409035138
11135609 149 17910090728527914431
11136131 41 17905322189142065368
11963148 33 17836647800434389351
12107183 9 18127436608165644371
13165054 49 18046882923422043213
13911987 19 17037552522856250293
14429380 30 18336267924569564754
14705955 166 17201923618207417969
14844126 61 18411142398883840443
14856354 85 18267867182094141244
15320294 125 17970641692261480733
15467298 65 17898282811128436898
15538507 19 18338510967299141154
15803439 3 17102527706847667861
17492 89 18338520866770489913
19301676 85 18265328418246467623
19315092 285 17056968682605054451
20580484 66 18117273663277555178
20775530 9 18191318258891957413
21458453 9 18059840784620094130
21796203 349 18049759422128454682
22122407 14 15697710407446535632
22956985 138 18265328581365690216
23569914 152 18053913352322760439
3044373 233 17537744443859474747
3383291 50 18269845229482708851
345986 75 17485391159554064473
3504750 166 17900531291042060322
3882209 13 18199166529899599959
397830 11 18131339814198681898
437795 96 17912375229300315511
4403749 210 18130208382141852782
4616759 239 17844515605765034946
484985 159 18409164394798366735
5080951 261 18262228907129365141
5104073 3 18271814522895075656
5364581 5 18201707454343287312
6058803 2 18265354947917180629
6431902 208 18408041827348763326
6691757 9 18200316494682307817
9953998 17 18199742545406902936

> <PUBCHEM_SHAPE_MULTIPOLES>
631.21
16.97
7.48
1.53
28.91
3.65
0.06
-27.06
6.42
-6.14
-0.57
-0.49
-1
-3.9

> <PUBCHEM_SHAPE_SELFOVERLAP>
1349.892

> <PUBCHEM_SHAPE_VOLUME>
350.8

> <PUBCHEM_COORDINATE_TYPE>
2
5
10

$$$$
